20
Lattice="25.0 1.53080849893e-15 1.53080849893e-15 0.0 25.0 1.53080849893e-15 0.0 0.0 25.0" Properties=species:S:1:pos:R:3:Z:I:1 pbc="F F F"
Au     12.37176056       9.37741985      12.38573972       79 
Au     12.37081960      11.16495093       9.99431362       79 
Au     11.01633143       8.63266071      10.10516457       79 
Au     10.57587245      12.06861774      12.40702856       79 
Au      9.50736571      11.21562675       9.98348300       79 
Au      9.38035360       9.52619236      12.28717796       79 
Au     13.72979953       8.63583770      10.09979581       79 
Au      8.25963235       8.80096291       9.95514960       79 
Au     10.72463321      10.20577460      14.51282417       79 
Au     16.48811423       8.80987016       9.96436649       79 
Au     12.36185383      14.21442687      12.52635160       79 
Au     13.90938124      13.59107530      10.12884298       79 
Au     12.36879565      15.92001904      10.51303523       79 
Au     12.36343394      12.48256123      14.58221463       79 
Au     14.16203842      12.08062401      12.40861126       79 
Au     12.35757512      10.73303702      16.65821826       79 
Au     14.00385028      10.21980790      14.51629990       79 
Au     15.35098829       9.53658090      12.29220535       79 
Au     15.23358109      11.22042146       9.98453813       79 
Au     10.83113946      13.58676786      10.12546035       79 
